tests/data/test_opendss_model_p35u/p35uhs0_4/Master.dss
Clear

New Circuit.substation_p35uhs0_69 bus1=p35uhs0_69 pu=1.0 basekV=69.0 R1=1e-05 X1=1e-05 R0=1e-05 X0=1e-05

Redirect LineCodes.dss
Redirect p35uhs0_4--p35udt1/LineCodes.dss
Redirect Lines.dss
Redirect p35uhs0_4--p35udt1/Lines.dss
Redirect Transformers.dss
Redirect p35uhs0_4--p35udt1/Transformers.dss
Redirect Regulators.dss
Redirect p35uhs0_4--p35udt1/Loads.dss
new monitor.m1 element=Line.sb5_p35uhs0_4_426 mode=0
new monitor.m2 element=Line.sb5_p35uhs0_4_426 mode=1
new energymeter.m3 Line.sb5_p35uhs0_4_426

Set Voltagebases=[0.12, 0.208, 0.48, 2.309, 4.0, 69.0]

Calcvoltagebases

Buscoords Buscoords.dss
set maxcontroliter=50
